
     RDKit          2D

 42 49  0  0  0  0  0  0  0  0999 V2000
   18.2549    6.0293    0.0000 C   0  0  0  0  0  0  0  0  0  0  0  0
   18.3893    4.5353    0.0000 C   0  0  0  0  0  0  0  0  0  0  0  0
   17.1628    3.6719    0.0000 C   0  0  0  0  0  0  0  0  0  0  0  0
   15.8017    4.3024    0.0000 C   0  0  0  0  0  0  0  0  0  0  0  0
   14.5751    3.4390    0.0000 C   0  0  0  0  0  0  0  0  0  0  0  0
   14.5527    1.9392    0.0000 N   0  0  0  0  0  0  0  0  0  0  0  0
   13.1193    1.4970    0.0000 N   0  0  0  0  0  0  0  0  0  0  0  0
   12.2559    2.7236    0.0000 C   0  0  0  0  0  0  0  0  0  0  0  0
   10.7561    2.7460    0.0000 C   0  0  0  0  0  0  0  0  0  0  0  0
   10.0256    4.0562    0.0000 C   0  0  0  0  0  0  0  0  0  0  0  0
    8.5258    4.0786    0.0000 C   0  0  0  0  0  0  0  0  0  0  0  0
    7.7564    2.7909    0.0000 N   0  0  0  0  0  0  0  0  0  0  0  0
    6.2566    2.8134    0.0000 C   0  0  0  0  0  0  0  0  0  0  0  0
    5.4872    1.5257    0.0000 C   0  0  0  0  0  0  0  0  0  0  0  0
    3.9874    1.5481    0.0000 C   0  0  0  0  0  0  0  0  0  0  0  0
    3.2181    0.2605    0.0000 C   0  0  0  0  0  0  0  0  0  0  0  0
    3.9485   -1.0497    0.0000 C   0  0  0  0  0  0  0  0  0  0  0  0
    3.1792   -2.3373    0.0000 C   0  0  0  0  0  0  0  0  0  0  0  0
    3.7687   -3.7166    0.0000 N   0  0  0  0  0  0  0  0  0  0  0  0
    2.6391   -4.7035    0.0000 N   0  0  0  0  0  0  0  0  0  0  0  0
    1.3515   -3.9342    0.0000 C   0  0  0  0  0  0  0  0  0  0  0  0
    1.6852   -2.4718    0.0000 N   0  0  0  0  0  0  0  0  0  0  0  0
    0.7500   -1.2990    0.0000 C   0  0  0  0  0  0  0  0  0  0  0  0
    1.5000    0.0000    0.0000 C   0  0  0  0  0  0  0  0  0  0  0  0
    0.7500    1.2990    0.0000 C   0  0  0  0  0  0  0  0  0  0  0  0
   -0.7500    1.2990    0.0000 C   0  0  0  0  0  0  0  0  0  0  0  0
   -1.5000    0.0000    0.0000 N   0  0  0  0  0  0  0  0  0  0  0  0
   -0.7500   -1.2990    0.0000 C   0  0  0  0  0  0  0  0  0  0  0  0
   -1.6852   -2.4718    0.0000 N   0  0  0  0  0  0  0  0  0  0  0  0
   -1.3515   -3.9342    0.0000 C   0  0  0  0  0  0  0  0  0  0  0  0
   -2.5908   -4.7792    0.0000 C   0  0  0  0  0  0  0  0  0  0  0  0
   -2.4787   -6.2750    0.0000 C   0  0  0  0  0  0  0  0  0  0  0  0
   -1.1273   -6.9258    0.0000 C   0  0  0  0  0  0  0  0  0  0  0  0
    0.1121   -6.0808    0.0000 C   0  0  0  0  0  0  0  0  0  0  0  0
    0.0000   -4.5850    0.0000 C   0  0  0  0  0  0  0  0  0  0  0  0
    5.4484   -1.0721    0.0000 C   0  0  0  0  0  0  0  0  0  0  0  0
    6.2177    0.2156    0.0000 C   0  0  0  0  0  0  0  0  0  0  0  0
    8.4869    1.4808    0.0000 C   0  0  0  0  0  0  0  0  0  0  0  0
    9.9867    1.4584    0.0000 C   0  0  0  0  0  0  0  0  0  0  0  0
   13.1557    3.9238    0.0000 N   0  0  0  0  0  0  0  0  0  0  0  0
   15.6673    5.7964    0.0000 N   0  0  0  0  0  0  0  0  0  0  0  0
   16.8938    6.6598    0.0000 C   0  0  0  0  0  0  0  0  0  0  0  0
  1  2  2  0
  2  3  1  0
  3  4  2  0
  4  5  1  0
  5  6  2  0
  6  7  1  0
  7  8  2  0
  8  9  1  0
  9 10  1  0
 10 11  1  0
 11 12  1  0
 12 13  1  0
 13 14  1  0
 14 15  2  0
 15 16  1  0
 16 17  2  0
 17 18  1  0
 18 19  2  0
 19 20  1  0
 20 21  2  0
 21 22  1  0
 22 23  1  0
 23 24  2  0
 24 25  1  0
 25 26  2  0
 26 27  1  0
 27 28  2  0
 28 29  1  0
 29 30  1  0
 30 31  2  0
 31 32  1  0
 32 33  2  0
 33 34  1  0
 34 35  2  0
 17 36  1  0
 36 37  2  0
 12 38  1  0
 38 39  1  0
  8 40  1  0
  4 41  1  0
 41 42  2  0
 42  1  1  0
 40  5  1  0
 39  9  1  0
 37 14  1  0
 22 18  1  0
 28 23  1  0
 35 30  1  0
 35 21  1  0
M  END

